test/test_files/matlab_test_files/d_kundur2_mdl.m
Bus.con = [ ...
  1  400  1  0  1  1;
  2  400  1  0  1  1;
  3  400  1  0  1  1;
  4  400  1  0  1  1;
  5  400  1  0  1  1;
  6  400  1  0  1  1;
  7  400  1  0  1  1;
  8  400  1  0  1  1;
  9  400  1  0  1  1;
 ];

Line.con = [ ...
  2  3  2220  400  60  0  0  0  0.5  0  0  0  0  0  0  1;
  2  3  2220  400  60  0  0  0  0.93  0  0  0  0  0  0  1;
  5  6  2220  400  60  0  0  0  0.5  0  0  0  0  0  0  1;
  5  6  2220  400  60  0  0  0  0.93  0  0  0  0  0  0  1;
  8  9  2220  400  60  0  0  0  0.5  0  0  0  0  0  0  1;
  8  9  2220  400  60  0  0  0  0.93  0  0  0  0  0  0  1;
  1  2  2220  400  60  0  1  0  0.15  0  0  0  0  0  0  1;
  4  5  2220  400  60  0  1  0  0.15  0  0  0  0  0  0  1;
  7  8  2220  400  60  0  1  0  0.15  0  0  0  0  0  0  1;
 ];

Breaker.con = [ ...
  2  2  2220  400  60  1  0.57  100  1  1;
  4  5  2220  400  60  1  0.57  100  1  1;
  6  8  2220  400  60  1  0.57  100  0  0;
 ];

Fault.con = [ ...
  2  2220  400  60  0.5  0.57  0  1e-05;
  5  2220  400  60  0.5  0.57  0  1e-05;
  8  2220  400  60  0.5  0.57  0  1e-05;
 ];

SW.con = [ ...
  3  2220  400  0.90081  0  1.5  -1.5  1.1  0.9  0.8  1  1  1;
  6  2220  400  0.90081  0  1.5  -1.5  1.1  0.9  0.8  1  1  1;
  9  2220  400  0.90081  0  1.5  -1.5  1.1  0.9  0.8  1  1  1;
 ];

PV.con = [ ...
  1  2220  400  0.9  1  0.8  -0.2  1.1  0.9  1  1;
  4  2220  400  0.9  1  0.8  -0.2  1.1  0.9  1  1;
  7  2220  400  0.9  1  0.8  -0.2  1.1  0.9  1  1;
 ];

Syn.con = [ ...
  1  2220  400  60  6  0.15  0.003  1.81  0.3  0.23  8  0.03  1.76  0.65  0.25  1  0.07  7  0  0  0  1  1  0  0.05  0.1  0  1;
  4  2220  400  60  6  0.15  0.003  1.81  0.3  0.23  8  0.03  1.76  0.65  0.25  1  0.07  7  0  0  0  1  1  0  0.05  0.1  0  1;
  7  2220  400  60  6  0.15  0.003  1.81  0.3  0.23  8  0.03  1.76  0.65  0.25  1  0.07  7  0  0  0  1  1  0  0.05  0.1  0  1;
 ];

Exc.con = [ ...
  2  3  7  -6.4  200  1  1  1  0  0.0001  0.015  0.0006  0.9;
  3  3  7  -6.4  200  1  1  1  0  0.0001  0.015  0.0006  0.9;
 ];

Pss.con = [ ...
  2  2  1  0.2  -0.2  9.5  1.41  0.154  0.033  1  1  25  0.5  20  5  0.045  0.045  0.045  -0.045  1  0.95  0  1;
 ];

Bus.names = {...
  'Bus1'; 'Bus2'; 'Bus3'; 'Bus4'; 'Bus5';
  'Bus6'; 'Bus7'; 'Bus8'; 'Bus9'};
